sistemas/ieee118.pwf
TITU
IEEE/RTS-SISTEMA TESTE  DO IEEE-118 BARRAS
DCTE
(Mn) ( Val) (Mn) ( Val) (Mn) ( Val) (Mn) ( Val) (Mn) ( Val) (Mn) ( Val) 
BASE   100. DASE   100. TEPA   1e-6 EXST    .04 TETP     5. TBPA     5.
TLPP     1. TEPR   1e-6 QLST    .04 TLPR   1e-6 TLPQ     2. TSBZ    .01
TSBA     5. ASTP    .05 VSTP     5. TLVC    .05 TLTC    .01 TSFR  .1E-7
ZMAX   500. TLPV     .5 VDVM   200. VDVN    40. TUDC   .001 TADC    .01
PGER    30. TPST    .02 VFLD    70. ZMIN   .001 HIST    470 LFIT     10
ACIT  99999 LFCV      1 DCIT     10 VSIT     10 LPIT     50 LFLP     10
PDIT     10 LCRT    200 LPRT     60 CSTP     5. ASDC     1.
ICIT   9999 DMAX   9999 FDIV     2. ICMN   1e-6 VART     5. TSTP     32
ICMV     .5 APAS    90. CPAR    70. VAVT     2. VAVF     5. VMVF    15.
VPVT     2. VPVF     5. VPMF    10. VSVF    20. VINF     1. VSUP     1.
TLSI     0. NDIR    20. STTR     5. TRPT   100. STIR     1. BFPO     1.
LFPO     .1 TLMT     0. TLMF     0. TLMG     0. PARS    10.            
99999
DBAR
(Num)OETGb(   nome   )Gl( V)( A)( Pg)( Qg)( Qn)( Qm)(Bc  )( Pl)( Ql)( Sh)Are(Vf)M(1)(2)(3)(4)(5)(6)(7)(8)(9)(10
    1  1  BARRA---1    0 955 0.   0.0     -5.0015.00       51.0 27.0      01                                     
    2  0  BARRA---2    01000 0.   0.0  0.0                 20.0  9.0      01                                     
    3  0  BARRA---3    01000 0.   0.0  0.0                 39.0 10.0      01                                     
    4  1  BARRA---4    0 998 0.  -9.0     -300.300.0       30.0 12.0      01                                     
    5  0  BARRA---5    01000 0.   0.0  0.0                  0.0  0.0-40.0 01                                     
    6  1  BARRA---6    0 990 0.   0.0     -13.050.00       52.0 22.0      01                                     
    7  0  BARRA---7    01000 0.   0.0  0.0                 19.0  2.0      01                                     
    8  1  BARRA---8    01015 0. -28.0  0.0-300.300.0        0.0  0.0      01                                     
    9  0  BARRA---9    01000 0.   0.0  0.0                  0.0  0.0      01                                     
   10  1  BARRA--10    01050 0. 450.0     -147.200.0        0.0  0.0      01                                     
   11  0  BARRA--11    01000 0.   0.0  0.0                 70.0 23.0      01                                     
   12  1  BARRA--12    0 990 0.  85.0     -35.0120.0       47.0 10.0      01                                     
   13  0  BARRA--13    01000 0.   0.0  0.0                 34.0 16.0      01                                     
   14  0  BARRA--14    01000 0.   0.0  0.0                 14.0  1.0      01                                     
   15  1  BARRA--15    0 970 0.   0.0     -10.030.00       90.0 30.0      01                                     
   16  0  BARRA--16    01000 0.   0.0  0.0                 25.0 10.0      01                                     
   17  0  BARRA--17    01000 0.   0.0  0.0                 11.0  3.0      01                                     
   18  1  BARRA--18    0 973 0.   0.0     -16.050.00       60.0 34.0      01                                     
   19  1  BARRA--19    0 962 0.   0.0     -8.0024.00       45.0 25.0      01                                     
   20  0  BARRA--20    01000 0.   0.0  0.0                 18.0  3.0      01                                     
   21  0  BARRA--21    01000 0.   0.0  0.0                 14.0  8.0      01                                     
   22  0  BARRA--22    01000 0.   0.0  0.0                 10.0  5.0      01                                     
   23  0  BARRA--23    01000 0.   0.0  0.0                  7.0  3.0      01                                     
   24  1  BARRA--24    0 992 0. -13.0     -300.300.0        0.0  0.0      01                                     
   25  1  BARRA--25    01050 0. 220.0     -47.0140.0        0.0  0.0      01                                     
   26  1  BARRA--26    01015 0. 314.0     -10001000.        0.0  0.0      01                                                                          
   27  1  BARRA--27    0 968 0.  -9.0     -300.300.0       62.0 13.0      01                                     
   28  0  BARRA--28    01000 0.   0.0  0.0                 17.0  7.0      01                                     
   29  0  BARRA--29    01000 0.   0.0  0.0                 24.0  4.0      01                                     
   30  0  BARRA--30    01000 0.   0.0  0.0                  0.0  0.0      01                                     
   31  1  BARRA--31    0 967 0.   7.0     -300.300.0       43.0 27.0      01                                     
   32  1  BARRA--32    0 963 0.   0.0     -14.042.00       59.0 23.0      01                                     
   33  0  BARRA--33    01000 0.   0.0  0.0                 23.0  9.0      01                                     
   34  1  BARRA--34    0 984 0.   0.0     -8.0024.00       59.0 26.014.00 01                                     
   35  0  BARRA--35    01000 0.   0.0  0.0                 33.0  9.0      01                                     
   36  1  BARRA--36    0 980 0.   0.0     -8.0024.00       31.0 17.0      01                                     
   37  0  BARRA--37    01000 0.   0.0  0.0                  0.0  0.0-25.0 01                                     
   38  0  BARRA--38    01000 0.   0.0  0.0                  0.0  0.0      01                                     
   39  0  BARRA--39    01000 0.   0.0  0.0                 27.0 11.0      01                                     
   40  1  BARRA--40    0 970 0. -46.0     -300.300.0       20.0 23.0      01                                     
   41  0  BARRA--41    01000 0.   0.0  0.0                 37.0 10.0      01                                     
   42  1  BARRA--42    0 985 0. -59.0     -300.300.0       37.0 23.0      01                                     
   43  0  BARRA--43    01000 0.   0.0  0.0                 18.0  7.0      01                                                                          
   44  0  BARRA--44    01000 0.   0.0  0.0                 16.0  8.0 10.0 01                                     
   45  0  BARRA--45    01000 0.   0.0  0.0                 53.0 22.0 10.0 01                                     
   46  1  BARRA--46    01005 0.  19.0     -100.100.0       28.0 10.0 10.0 01                                     
   47  0  BARRA--47    01000 0.   0.0  0.0                 34.0  0.0      01                                     
   48  0  BARRA--48    01000 0.   0.0  0.0                 20.0 11.015.00 01                                     
   49  1  BARRA--49    01025 0. 204.0     -85.0210.0       87.0 30.0      01                                     
   50  0  BARRA--50    01000 0.   0.0  0.0                 17.0  4.0      01                                     
   51  0  BARRA--51    01000 0.   0.0  0.0                 17.0  8.0      01                                     
   52  0  BARRA--52    01000 0.   0.0  0.0                 18.0  5.0      01                                     
   53  0  BARRA--53    01000 0.   0.0  0.0                 23.0 11.0      01                                     
   54  1  BARRA--54    0 955 0.  48.0     -300.300.0      113.0 32.0      01                                     
   55  1  BARRA--55    0 952 0.   0.0     -8.0023.00       63.0 22.0      01                                     
   56  1  BARRA--56    0 954 0.   0.0     -8.0015.00       84.0 18.0      01                                     
   57  0  BARRA--57    01000 0.   0.0  0.0                 12.0  3.0      01                                     
   58  0  BARRA--58    01000 0.   0.0  0.0                 12.0  3.0      01                                     
   59  1  BARRA--59    0 985 0. 155.0     -60.0180.0      277.0113.0      01                                     
   60  0  BARRA--60    01000 0.   0.0  0.0                 78.0  3.0      01                                     
   61  1  BARRA--61    0 995 0. 160.0     -100.300.0        0.0  0.0      01                                     
   62  1  BARRA--62    0 998 0.   0.0     -20.020.00       77.0 14.0      01                                     
   63  0  BARRA--63    01000 0.   0.0  0.0                  0.0  0.0      01                                     
   64  0  BARRA--64    01000 0.   0.0  0.0                  0.0  0.0      01                                                                                                               
   65  1  BARRA--65    01005 0. 391.0     -67.0200.0        0.0  0.0      01                                     
   66  1  BARRA--66    01050 0. 392.0     -67.0200.0       39.0 18.0      01                                     
   67  0  BARRA--67    01000 0.   0.0  0.0                 28.0  7.0      01                                     
   68  0  BARRA--68    01000 0.   0.0  0.0                  0.0  0.0      01                                     
   69  2  BARRA--69    0103530. 516.4     -300.300.0        0.0  0.0      01                                     
   70  1  BARRA--70    0 984 0.   0.0     -10.032.00       66.0 20.0      01                                     
   71  0  BARRA--71    01000 0.   0.0  0.0                  0.0  0.0      01                                     
   72  1  BARRA--72    0 980 0. -12.0     -100.100.0        0.0  0.0      01                                     
   73  1  BARRA--73    0 991 0.  -6.0     -100.100.0        0.0  0.0      01                                     
   74  1  BARRA--74    0 958 0.   0.0     -6.009.000       68.0 27.012.00 01                                     
   75  0  BARRA--75    01000 0.   0.0  0.0                 47.0 11.0      01                                     
   76  1  BARRA--76    0 943 0.   0.0     -8.0023.00       68.0 36.0      01                                     
   77  1  BARRA--77    01006 0.   0.0     -20.070.00       61.0 28.0      01                                     
   78  0  BARRA--78    01000 0.   0.0  0.0                 71.0 26.0      01                                     
   79  0  BARRA--79    01000 0.   0.0  0.0                 39.0 32.0 20.0 01                                     
   80  1  BARRA--80    01040 0. 477.0     -165.280.0      130.0 26.0      01                                     
   81  0  BARRA--81    01000 0.   0.0  0.0                  0.0  0.0      01                                     
   82  0  BARRA--82    01000 0.   0.0  0.0                 54.0 27.0 20.0 01                                     
   83  0  BARRA--83    01000 0.   0.0  0.0                 20.0 10.0 10.0 01                                     
   84  0  BARRA--84    01000 0.   0.0  0.0                 11.0  7.0      01                                     
   85  1  BARRA--85    0 985 0.   0.0     -8.0023.00       24.0 15.0      01                                     
   86  0  BARRA--86    01000 0.   0.0  0.0                 21.0 10.0      01                                     
   87  1  BARRA--87    01015 0.   4.0     -100.1000.        0.0  0.0      01                                     
   88  0  BARRA--88    01000 0.   0.0  0.0                 48.0 10.0      01                                     
   89  1  BARRA--89    01005 0. 607.0     -210.300.0        0.0  0.0      01                                     
   90  1  BARRA--90    0 985 0. -85.0     -300.300.0       78.0 42.0      01                                     
   91  1  BARRA--91    0 980 0. -10.0     -100.100.0        0.0  0.0      01                                     
   92  1  BARRA--92    0 990 0.   0.0     -3.009.000       65.0 10.0      01                                     
   93  0  BARRA--93    01000 0.   0.0  0.0                 12.0  7.0      01                                     
   94  0  BARRA--94    01000 0.   0.0  0.0                 30.0 16.0      01                                     
   95  0  BARRA--95    01000 0.   0.0  0.0                 42.0 31.0      01                                                                          
   96  0  BARRA--96    01000 0.   0.0  0.0                 38.0 15.0      01                                     
   97  0  BARRA--97    01000 0.   0.0  0.0                 15.0  9.0      01                                     
   98  0  BARRA--98    01000 0.   0.0  0.0                 34.0  8.0      01                                     
   99  1  BARRA--99    01010 0. -42.0     -100.100.0        0.0  0.0      01                                     
  100  1  BARRA-100    01017 0. 252.0     -50.0155.0       37.0 18.0      01                                     
  101  0  BARRA-101    01000 0.   0.0  0.0                 22.0 15.0      01                                     
  102  0  BARRA-102    01000 0.   0.0  0.0                  5.0  3.0      01                                     
  103  1  BARRA-103    01010 0.  40.0     -15.040.00       23.0 16.0      01                                     
  104  1  BARRA-104    0 971 0.   0.0     -8.0023.00       38.0 25.0      01                                     
  105  1  BARRA-105    0 965 0.   0.0     -8.0023.00       31.0 26.0 20.0 01                                     
  106  0  BARRA-106    01000 0.   0.0  0.0                 43.0 16.0      01                                     
  107  1  BARRA-107    0 952 0. -22.0     -200.200.0       28.0 12.0  6.0 01                                     
  108  0  BARRA-108    01000 0.   0.0  0.0                  2.0  1.0      01                                     
  109  0  BARRA-109    01000 0.   0.0  0.0                  8.0  3.0      01                                     
  110  1  BARRA-110    0 973 0.   0.0     -8.0023.00       39.0 30.0  6.0 01                                     
  111  1  BARRA-111    0 980 0.  36.0     -100.1000.        0.0  0.0      01                                     
  112  1  BARRA-112    0 975 0. -43.0     -100.1000.       25.0 13.0      01                                     
  113  1  BARRA-113    0 993 0.  -6.0     -100.200.0        0.0  0.0      01                                     
  114  0  BARRA-114    01000 0.   0.0  0.0                  8.0  3.0      01                                     
  115  0  BARRA-115    01000 0.   0.0  0.0                 22.0  7.0      01                                     
  116  1  BARRA-116    01005 0. -184.     -10001000.        0.0  0.0      01                                     
  117  0  BARRA-117    01000 0.   0.0  0.0                 20.0  8.0      01                                                                          
  118  0  BARRA-118    01000 0.   0.0  0.0                 33.0 15.0      01                                                                          
99999
DLIN
(De )d O d(Pa )NcEPM( R% )( X% )(Mvar)(Tap)(Tmn)(Tmx)(Phs)(Bc  )(Cn)(Ce)Ns(Cq)(1)(2)(3)(4)(5)(6)(7)(8)(9)(10
    1         2      3.030 9.990 2.540                                                                       
    1         3      1.290 4.240 1.082                                                                       
    4         5      0.176 0.798 0.210                                                                       
    3         5      2.410 10.80 2.840                                                                       
    5         6      1.190 5.400 1.426                                                                       
    6         7      0.459 2.080 0.550                                                                       
    8         9      0.244 3.050116.20                                                                       
    8         5      0.000 2.670 0.0000.985 0.70 1.30       8                                                                              
    9        10      0.258 3.220 123.0                                                                                                     
    4        11      2.090 6.880 1.748                                                                                                     
    5        11      2.030 6.820 1.738                                                                                                     
   11        12      0.595 1.960 0.502                                                                                                     
    2        12      1.870 6.160 1.572                                                                                                     
    3        12      4.840 16.00 4.060                                                                                                     
    7        12      0.862 3.400 0.874                                                                                                     
   11        13      2.225 7.310 1.876                                                                                                     
   12        14      2.150 7.070 1.816                                                                                                     
   13        15      7.440 24.44 6.268                                                                                                     
   14        15      5.950 19.50 5.020                                                                                                     
   12        16      2.120 8.340 2.140                                                                                                     
   15        17      1.320 4.370 4.440                                                                                                     
   16        17      4.540 18.01 4.660                                                                                                     
   17        18      1.230 5.050 1.298                                                                                                     
   18        19      1.119 4.930 1.142                                                                                                     
   19        20      2.520 11.70 2.980                                                                                                     
   15        19      1.200 3.940 1.010                                                                                                     
   20        21      1.830 8.490 2.160                                                                                                     
   21        22      2.090 9.700 2.460                                                                                                     
   22        23      3.420 15.90 4.040                                                                                                     
   23        24      1.350 4.920 4.980                                                                                                     
   23        25      1.560 8.000 8.640                                                                                                     
   26        25      0.000 3.820 0.000 0.96                                                                                                
   25        27      3.180 16.30 17.64                                                                                                     
   27        28      1.913 8.550 2.160                                                                                                     
   28        29      2.370 9.430 2.380                                                                                                     
   30        17      0.00  3.880 0.000 0.96 0.70 1.30      30                                                                              
   26        30      0.799 8.600 90.80                                                                                                     
    8        30      0.431 5.040 51.40                                                                                                     
   17        31      4.740 15.63 3.990                                                                                                     
   29        31      1.080 3.310 0.830                                                                                                     
   23        32      3.170 11.53 11.73                                                                                                     
   31        32      2.980 9.850 2.510                                                                                                     
   27        32      2.290 7.550 1.926                                                                                                     
   15        33      3.800 12.44 3.194                                                                                                     
   19        34      7.520 24.70 6.320                                                                                                     
   35        36      0.224 1.020 0.268                                                                                                     
   35        37      1.100 4.970 1.318                                                                                                     
   33        37      4.150 14.20 3.660                                                                                                     
   34        36      0.871 2.680 0.568                                                                                                     
   34        37      0.256 0.940 0.984                                                                                                     
   38        37      0.000 3.750 0.0000.938 0.70 1.30      38                                                                              
   37        39      3.210 10.60 2.700                                                                                                     
   37        40      5.930 16.80 4.200                                                                                                     
   30        38      0.464 5.400 42.20                                                                                                     
   39        40      1.840 6.050 1.552                                                                                                     
   40        41      1.450 4.870 1.222                                                                                                     
   40        42      5.550 18.30 4.660                                                                                                     
   41        42      4.100 13.50 3.440                                                                                                     
   43        44      6.080 24.54 6.068                                                                                                     
   34        43      4.130 16.81 4.226                                                                                                     
   44        45      2.240 9.010 2.240                                                                                                     
   45        46      4.000 13.56 3.320                                                                                                     
   46        47      3.800 12.70 3.160                                                                                                     
   46        48      6.010 18.90 4.720                                                                                                     
   47        49      1.910 6.250 1.604                                                                                                     
   42        49      7.150 32.30 8.600                                                                                                     
   42        49      7.150 32.30 8.600                                                                                    
   45        49      6.840 18.60 4.440                                                                                    
   48        49      1.790 5.050 1.258                                                                                    
   49        50      2.670 7.520 1.874                                                                                    
   49        51      4.860 13.70 3.420                                                                                    
   51        52      2.030 5.880 1.396                                                                                    
   52        53      4.050 16.35 4.058                                                                                    
   53        54      2.630 12.20 3.100                                                                                    
   49        54      7.300 28.90 7.380                                                                                    
   49        54      8.690 29.10 7.300                                                                                    
   54        55      1.690 7.070 2.020                                                                                    
   54        56      0.275 0.955 0.732                                                                                    
   55        56      0.488 1.510 0.374                                                                                    
   56        57      3.430 9.660 2.420                                                                                    
   50        57      4.740 13.40 3.320                                                                                    
   56        58      3.430 9.660 2.420                                                                                    
   51        58      2.550 7.190 1.788                                                                                    
   54        59      5.030 22.93 5.980                                                                                    
   56        59      8.250 25.10 5.690                                                                                    
   56        59      8.030 23.90 5.360                                                                                    
   55        59      4.739 21.58 5.646                                                                                    
   59        60      3.170 14.50 3.760                                                                                    
   59        61      3.280 15.00 3.880                                                                                    
   60        61      0.264 1.350 1.456                                                                                    
   60        62      1.230 5.610 1.468                                                                                    
   61        62      0.824 3.760 0.980                                                                                    
   63        59      0.000 3.860 0.000 0.96                                                                                        
   63        64      0.172 2.000 21.60                                                                                             
   64        61      0.000 2.680 0.0000.985                                                                                        
   38        65      0.901 9.860 104.6                                                                                             
   64        65      0.269 3.020 38.00                                                                                             
   49        66      1.800 9.190 2.480                                                                                             
   49        66      1.800 9.190 2.480                                                                                             
   62        66      4.820 21.80 5.780                                                                                             
   62        67      2.580 11.70 3.100                                                                                             
   65        66      0.000 3.700 0.0000.935                                                                                        
   66        67      2.240 10.15 2.682                                                                                         
   65        68      0.138 1.600 63.80                                                                                         
   47        69      8.440 27.78 7.092                                                                                         
   49        69      9.850 32.40 8.280                                                                                         
   68        69      0.000 3.700 0.0000.935 0.70 1.30      68                                                                     
   69        70      3.000 12.70 12.20                                                                                            
   24        70      0.221 41.1510.198                                                                                            
   70        71      0.882 3.550 0.878                                                                                            
   24        72      4.880 19.60 4.880                                                                                            
   71        72      4.460 18.00 4.444                                                                                            
   71        73      0.866 4.540 1.178                                                                                            
   70        74      4.010 13.23 3.368                                                                                            
   70        75      4.280 14.10 3.600                                                                                            
   69        75      4.050 12.20 12.40                                                                                            
   74        75      1.230 4.060 1.034                                                                                            
   76        77      4.440 14.80 3.680                                                                                            
   69        77      3.090 10.10 10.38                                                                                            
   75        77      6.010 19.99 4.978                                                                                            
   77        78      0.376 1.240 1.264                                                                                            
   78        79      0.546 2.440 0.648                                                                                            
   77        80      1.700 4.850 4.720                                                                                            
   77        80      2.940 10.50 2.280                                                                                            
   79        80      1.560 7.040 1.870                                                                                            
   68        81      0.175 2.020 80.80                                                                                            
   81        80      0.000 3.700 0.0000.935 0.70 1.30      80                                                                     
   77        82      2.980 8.530 8.174                                                                                            
   82        83      1.120 3.665 3.796                                                                              
   83        84      6.250 13.20 2.580                                                                              
   83        85      4.300 14.80 3.480                                                                              
   84        85      3.020 6.410 1.234                                                                              
   85        86      3.500 12.30 2.760                                                                              
   86        87      2.828 20.74 4.450                                                                              
   85        88      2.000 10.20 2.760                                                                              
   85        89      2.390 17.30 4.700                                                                              
   88        89      1.390 7.120 1.934                                                                              
   89        90      5.180 18.80 5.280                                                                              
   89        90      2.380 9.970 10.60                                                                              
   90        91      2.540 8.360 2.140                                                                              
   89        92      0.990 5.050 5.480                                                                              
   89        92      3.930 15.81 4.140                                                                              
   91        92      3.870 12.72 3.268                                                                              
   92        93      2.580 8.480 2.180                                                                              
   92        94      4.810 15.80 4.060                                                                              
   93        94      2.230 7.320 1.876                                                                              
   94        95      1.320 4.340 1.110                                                                              
   80        96      3.560 18.20 4.940                                                                              
   82        96      1.620 5.300 5.440                                                                              
   94        96      2.690 8.690 2.300                                                                              
   80        97      1.830 9.340 2.540                                                                              
   80        98      2.380 10.80 2.860                                                                              
   80        99      4.540 20.60 5.460                                                                              
   92       100      6.480 29.50 7.720                                                                              
   94       100      1.780 5.800 6.040                                                                              
   95        96      1.710 5.470 1.474                                                                              
   96        97      1.730 8.850 2.400                                                                              
   98       100      3.970 17.90 4.760                                                                              
   99       100      1.800 8.130 2.160                                                                              
  100       101      2.770 12.62 3.280                                                                              
   92       102      1.230 5.590 1.464                                                                              
  101       102      2.460 11.20 2.940                                                                              
  100       103      1.600 5.250 5.360                                                                              
  100       104      4.510 20.40 5.410                                                                              
  103       104      4.660 15.84 4.070                                                                              
  103       105      5.350 16.25 4.080                                                                              
  100       106      6.050 22.90 6.200                                                                              
  104       105      0.994 3.780 0.986                                                                              
  105       106      1.400 5.470 1.434                                                                              
  105       107      5.300 18.30 4.720                                                                              
  105       108      2.610 7.030 1.844                                                                              
  106       107      5.300 18.30 4.720                                                                              
  108       109      1.050 2.880 0.760                                                                              
  103       110      3.906 18.13 4.610                                                                              
  109       110      2.780 7.620 2.020                                                                              
  110       111      2.200 7.550 2.000                                                                              
  110       112      2.470 6.400 6.200                                                                              
   17       113      0.913 3.010 0.768                                                                              
   32       113      6.150 20.30 5.180                                                                              
   32       114      1.350 6.120 1.628                                                                              
   27       115      1.640 7.410 1.972                                                                              
  114       115      0.230 1.040 0.276                                                                              
   68       116      0.034 0.405 16.40                                                                              
   12       117      3.290 14.00 3.580                                                                              
   75       118      1.450 4.810 1.198                                                                              
   76       118      1.640 5.440 1.356                                                                                                                                                                             
99999
DGLT
(G (Vmn) (Vmx)
 0 0.950 1.050
99999
DMET
(tp) (no ) C (tp) (no ) C (tp) (no ) C (tp) (no ) O
AREA    1  A AREA  9999                              
99999
DINC
(tp) (no ) C (tp) (no ) C (tp) (no ) C (tp) (no ) O ( P ) ( Q ) (Pmx) (Qmx)
AREA    1  A AREA  9999                              .5    .5
99999
EXLF NEWT
FIM